data_CONTCAR\(0\0\1)\Al
_audit_creation_date              2024-07-24
_audit_creation_method            'Materials Studio'
_symmetry_space_group_name_H-M    'P1'
_symmetry_Int_Tables_number       1
_symmetry_cell_setting            triclinic
loop_
_symmetry_equiv_pos_as_xyz
  x,y,z
_cell_length_a                    9.6149
_cell_length_b                    8.3267
_cell_length_c                    21.5606
_cell_angle_alpha                 90.0000
_cell_angle_beta                  90.0000
_cell_angle_gamma                 90.0000
loop_
_atom_site_label
_atom_site_type_symbol
_atom_site_fract_x
_atom_site_fract_y
_atom_site_fract_z
_atom_site_U_iso_or_equiv
_atom_site_adp_type
_atom_site_occupancy
Al1    Al   -0.00000   0.66667   0.20286   0.00000  Uiso   1.00
Al2    Al    0.25000   0.16667   0.20286   0.00000  Uiso   1.00
Al3    Al   -0.00000   0.33333   0.12430   0.00000  Uiso   1.00
Al4    Al    0.25000   0.83333   0.12430   0.00000  Uiso   1.00
Al5    Al   -0.00000  -0.00000   0.10143   0.00000  Uiso   1.00
Al6    Al    0.25000   0.50000   0.10143   0.00000  Uiso   1.00
Al7    Al   -0.00000   0.66667   0.02288   0.00000  Uiso   1.00
Al8    Al    0.25000   0.16667   0.02288   0.00000  Uiso   1.00
Al9    Al   -0.00000   0.33333   0.30429   0.00000  Uiso   1.00
Al10   Al    0.25000   0.83333   0.30429   0.00000  Uiso   1.00
Al11   Al   -0.00000  -0.00000   0.22573   0.00000  Uiso   1.00
Al12   Al    0.25000   0.50000   0.22573   0.00000  Uiso   1.00
Al13   Al   -0.00000   0.33333   0.00000   0.00000  Uiso   1.00
Al14   Al    0.25000   0.83333   0.00000   0.00000  Uiso   1.00
O15    O     0.17346   0.98642   0.06215   0.00000  Uiso   1.00
O16    O     0.42346   0.48642   0.06215   0.00000  Uiso   1.00
O17    O     0.09691   0.50000   0.16358   0.00000  Uiso   1.00
O18    O     0.34691  -0.00000   0.16358   0.00000  Uiso   1.00
O19    O     0.15309   0.33333   0.06215   0.00000  Uiso   1.00
O20    O     0.40309   0.83333   0.06215   0.00000  Uiso   1.00
O21    O     0.17346   0.68025   0.06215   0.00000  Uiso   1.00
O22    O     0.42346   0.18025   0.06215   0.00000  Uiso   1.00
O23    O     0.07654   0.15309   0.16358   0.00000  Uiso   1.00
O24    O     0.32654   0.65309   0.16358   0.00000  Uiso   1.00
O25    O     0.07654   0.84691   0.16358   0.00000  Uiso   1.00
O26    O     0.32654   0.34691   0.16358   0.00000  Uiso   1.00
O27    O     0.17346   0.31975   0.26501   0.00000  Uiso   1.00
O28    O     0.42346   0.81975   0.26501   0.00000  Uiso   1.00
O29    O     0.15309   0.66667   0.26501   0.00000  Uiso   1.00
O30    O     0.40309   0.16667   0.26501   0.00000  Uiso   1.00
O31    O     0.17346   0.01358   0.26501   0.00000  Uiso   1.00
O32    O     0.42346   0.51358   0.26501   0.00000  Uiso   1.00
Al33   Al    0.50000   0.66667   0.20286   0.00000  Uiso   1.00
Al34   Al    0.75000   0.16667   0.20286   0.00000  Uiso   1.00
Al35   Al    0.50000   0.33333   0.12430   0.00000  Uiso   1.00
Al36   Al    0.75000   0.83333   0.12430   0.00000  Uiso   1.00
Al37   Al    0.50000  -0.00000   0.10143   0.00000  Uiso   1.00
Al38   Al    0.75000   0.50000   0.10143   0.00000  Uiso   1.00
Al39   Al    0.50000   0.66667   0.02288   0.00000  Uiso   1.00
Al40   Al    0.75000   0.16667   0.02288   0.00000  Uiso   1.00
Al41   Al    0.50000   0.33333   0.30429   0.00000  Uiso   1.00
Al42   Al    0.75000   0.83333   0.30429   0.00000  Uiso   1.00
Al43   Al    0.50000  -0.00000   0.22573   0.00000  Uiso   1.00
Al44   Al    0.75000   0.50000   0.22573   0.00000  Uiso   1.00
Al45   Al    0.50000   0.33333   0.00000   0.00000  Uiso   1.00
Al46   Al    0.75000   0.83333   0.00000   0.00000  Uiso   1.00
O47    O     0.67346   0.98642   0.06215   0.00000  Uiso   1.00
O48    O     0.92346   0.48642   0.06215   0.00000  Uiso   1.00
O49    O     0.59691   0.50000   0.16358   0.00000  Uiso   1.00
O50    O     0.84691  -0.00000   0.16358   0.00000  Uiso   1.00
O51    O     0.65309   0.33333   0.06215   0.00000  Uiso   1.00
O52    O     0.90309   0.83333   0.06215   0.00000  Uiso   1.00
O53    O     0.67346   0.68025   0.06215   0.00000  Uiso   1.00
O54    O     0.92346   0.18025   0.06215   0.00000  Uiso   1.00
O55    O     0.57654   0.15309   0.16358   0.00000  Uiso   1.00
O56    O     0.82654   0.65309   0.16358   0.00000  Uiso   1.00
O57    O     0.57654   0.84691   0.16358   0.00000  Uiso   1.00
O58    O     0.82654   0.34691   0.16358   0.00000  Uiso   1.00
O59    O     0.67346   0.31975   0.26501   0.00000  Uiso   1.00
O60    O     0.92346   0.81975   0.26501   0.00000  Uiso   1.00
O61    O     0.65309   0.66667   0.26501   0.00000  Uiso   1.00
O62    O     0.90309   0.16667   0.26501   0.00000  Uiso   1.00
O63    O     0.67346   0.01358   0.26501   0.00000  Uiso   1.00
O64    O     0.92346   0.51358   0.26501   0.00000  Uiso   1.00
