
#======================================================================
# CRYSTAL DATA
#----------------------------------------------------------------------
data_VESTA_phase_1

_chemical_name_common                  'Al12 O18                              '
_cell_length_a                         4.807451
_cell_length_b                         4.807451
_cell_length_c                         13.121175
_cell_angle_alpha                      90.000000
_cell_angle_beta                       90.000000
_cell_angle_gamma                      120.000000
_cell_volume                           262.623173
_space_group_name_H-M_alt              'P 1'
_space_group_IT_number                 1

loop_
_space_group_symop_operation_xyz
   'x, y, z'

loop_
   _atom_site_label
   _atom_site_occupancy
   _atom_site_fract_x
   _atom_site_fract_y
   _atom_site_fract_z
   _atom_site_adp_type
   _atom_site_U_iso_or_equiv
   _atom_site_type_symbol
   Al1        1.0     0.333333     0.666667     0.814540    Uiso  ? Al
   Al2        1.0     0.666667     0.333333     0.685460    Uiso  ? Al
   Al3        1.0     -0.000000     -0.000000     0.647873    Uiso  ? Al
   Al4        1.0     0.333333     0.666667     0.518794    Uiso  ? Al
   Al5        1.0     -0.000000     -0.000000     0.147873    Uiso  ? Al
   Al6        1.0     0.333333     0.666667     0.018794    Uiso  ? Al
   Al7        1.0     0.666667     0.333333     0.981206    Uiso  ? Al
   Al8        1.0     -0.000000     -0.000000     0.852127    Uiso  ? Al
   Al9        1.0     0.666667     0.333333     0.481206    Uiso  ? Al
   Al10       1.0     -0.000000     -0.000000     0.352127    Uiso  ? Al
   Al11       1.0     0.333333     0.666667     0.314540    Uiso  ? Al
   Al12       1.0     0.666667     0.333333     0.185460    Uiso  ? Al
   O1         1.0     0.360492     0.333333     0.583333    Uiso  ? O
   O2         1.0     0.693825     0.693825     0.750000    Uiso  ? O
   O3         1.0     0.972842     0.639508     0.583333    Uiso  ? O
   O4         1.0     0.666667     0.027158     0.583333    Uiso  ? O
   O5         1.0     -0.000000     0.306175     0.750000    Uiso  ? O
   O6         1.0     0.306175     0.000000     0.750000    Uiso  ? O
   O7         1.0     0.027158     0.666667     0.916667    Uiso  ? O
   O8         1.0     0.360492     0.027158     0.083333    Uiso  ? O
   O9         1.0     0.639508     0.972842     0.916667    Uiso  ? O
   O10        1.0     0.333333     0.360492     0.916667    Uiso  ? O
   O11        1.0     0.666667     0.639508     0.083333    Uiso  ? O
   O12        1.0     0.972842     0.333333     0.083333    Uiso  ? O
   O13        1.0     0.693825     -0.000000     0.250000    Uiso  ? O
   O14        1.0     0.027158     0.360492     0.416667    Uiso  ? O
   O15        1.0     0.306175     0.306175     0.250000    Uiso  ? O
   O16        1.0     -0.000000     0.693825     0.250000    Uiso  ? O
   O17        1.0     0.333333     0.972842     0.416667    Uiso  ? O
   O18        1.0     0.639508     0.666667     0.416667    Uiso  ? O
