
#======================================================================
# CRYSTAL DATA
#----------------------------------------------------------------------
data_VESTA_phase_1

_chemical_name_common                  'SCAR                                  '
_cell_length_a                         9.614902
_cell_length_b                         8.326749
_cell_length_c                         21.560587
_cell_angle_alpha                      90.000000
_cell_angle_beta                       90.000000
_cell_angle_gamma                      90.000000
_cell_volume                           1726.159355
_space_group_name_H-M_alt              'P 1'
_space_group_IT_number                 1

loop_
_space_group_symop_operation_xyz
   'x, y, z'

loop_
   _atom_site_label
   _atom_site_occupancy
   _atom_site_fract_x
   _atom_site_fract_y
   _atom_site_fract_z
   _atom_site_adp_type
   _atom_site_U_iso_or_equiv
   _atom_site_type_symbol
   O1         1.0     0.173456     0.986420     0.062152    Uiso  ? O
   O2         1.0     0.423456     0.486420     0.062152    Uiso  ? O
   O3         1.0     0.096913     0.500000     0.163581    Uiso  ? O
   O4         1.0     0.346913     0.000000     0.163581    Uiso  ? O
   O5         1.0     0.153088     0.333333     0.062152    Uiso  ? O
   O6         1.0     0.403088     0.833333     0.062152    Uiso  ? O
   O7         1.0     0.173456     0.680245     0.062152    Uiso  ? O
   O8         1.0     0.423456     0.180246     0.062152    Uiso  ? O
   O9         1.0     0.076544     0.153087     0.163581    Uiso  ? O
   O10        1.0     0.326544     0.653087     0.163581    Uiso  ? O
   O11        1.0     0.076544     0.846912     0.163581    Uiso  ? O
   O12        1.0     0.326544     0.346912     0.163581    Uiso  ? O
   O13        1.0     0.173456     0.319755     0.265009    Uiso  ? O
   O14        1.0     0.423456     0.819755     0.265009    Uiso  ? O
   O15        1.0     0.153087     0.666667     0.265009    Uiso  ? O
   O16        1.0     0.403088     0.166667     0.265009    Uiso  ? O
   O17        1.0     0.173456     0.013580     0.265009    Uiso  ? O
   O18        1.0     0.423456     0.513579     0.265009    Uiso  ? O
   O19        1.0     0.673456     0.986420     0.062152    Uiso  ? O
   O20        1.0     0.923456     0.486420     0.062152    Uiso  ? O
   O21        1.0     0.596913     0.500000     0.163581    Uiso  ? O
   O22        1.0     0.846913     0.000000     0.163581    Uiso  ? O
   O23        1.0     0.653088     0.333333     0.062152    Uiso  ? O
   O24        1.0     0.903088     0.833333     0.062152    Uiso  ? O
   O25        1.0     0.673456     0.680245     0.062152    Uiso  ? O
   O26        1.0     0.923456     0.180245     0.062152    Uiso  ? O
   O27        1.0     0.576544     0.153087     0.163581    Uiso  ? O
   O28        1.0     0.826544     0.653087     0.163581    Uiso  ? O
   O29        1.0     0.576544     0.846912     0.163581    Uiso  ? O
   O30        1.0     0.826544     0.346912     0.163581    Uiso  ? O
   O31        1.0     0.673456     0.319755     0.265009    Uiso  ? O
   O32        1.0     0.923456     0.819755     0.265009    Uiso  ? O
   O33        1.0     0.653087     0.666667     0.265009    Uiso  ? O
   O34        1.0     0.903088     0.166667     0.265009    Uiso  ? O
   O35        1.0     0.673456     0.013579     0.265009    Uiso  ? O
   O36        1.0     0.923456     0.513580     0.265009    Uiso  ? O
   Al1        1.0     0.000000     0.666667     0.202858    Uiso  ? Al
   Al2        1.0     0.250000     0.166667     0.202858    Uiso  ? Al
   Al3        1.0     0.000000     0.333333     0.124303    Uiso  ? Al
   Al4        1.0     0.250000     0.833333     0.124303    Uiso  ? Al
   Al5        1.0     0.000000     0.000000     0.101429    Uiso  ? Al
   Al6        1.0     0.250000     0.500000     0.101429    Uiso  ? Al
   Al7        1.0     0.000000     0.666667     0.022875    Uiso  ? Al
   Al8        1.0     0.250000     0.166667     0.022875    Uiso  ? Al
   Al9        1.0    -0.000003     0.333347     0.275816    Uiso  ? Al
   Al10       1.0     0.249997     0.833347     0.275816    Uiso  ? Al
   Al11       1.0     0.000000     0.000000     0.225732    Uiso  ? Al
   Al12       1.0     0.250000     0.500000     0.225732    Uiso  ? Al
   Al13       1.0     0.000000     0.333333     0.000000    Uiso  ? Al
   Al14       1.0     0.250000     0.833333     0.000000    Uiso  ? Al
   Al15       1.0     0.500000     0.666667     0.202858    Uiso  ? Al
   Al16       1.0     0.750000     0.166667     0.202858    Uiso  ? Al
   Al17       1.0     0.500000     0.333333     0.124303    Uiso  ? Al
   Al18       1.0     0.750000     0.833333     0.124303    Uiso  ? Al
   Al19       1.0     0.500000     0.000000     0.101429    Uiso  ? Al
   Al20       1.0     0.750000     0.500000     0.101429    Uiso  ? Al
   Al21       1.0     0.500000     0.666667     0.022875    Uiso  ? Al
   Al22       1.0     0.750000     0.166667     0.022875    Uiso  ? Al
   Al23       1.0     0.499997     0.333347     0.275816    Uiso  ? Al
   Al24       1.0     0.749997     0.833347     0.275816    Uiso  ? Al
   Al25       1.0     0.500000     0.000000     0.225732    Uiso  ? Al
   Al26       1.0     0.750000     0.500000     0.225732    Uiso  ? Al
   Al27       1.0     0.500000     0.333333     0.000000    Uiso  ? Al
   Al28       1.0     0.750000     0.833333     0.000000    Uiso  ? Al
